Version 4.1
SHEET 1 880 680
WIRE 368 -80 304 -80
WIRE 208 32 192 32
WIRE 368 32 368 -80
WIRE 368 32 208 32
WIRE 416 32 368 32
WIRE 448 32 416 32
WIRE 208 80 208 32
WIRE 208 80 192 80
WIRE 448 80 448 32
WIRE 448 80 416 80
WIRE 144 112 0 112
WIRE 368 112 224 112
WIRE 304 128 192 128
WIRE 416 128 304 128
WIRE 304 144 304 128
WIRE 432 144 304 144
WIRE 304 160 304 144
WIRE 352 208 304 208
WIRE 144 240 144 112
WIRE 256 240 144 240
WIRE 224 288 224 112
WIRE 224 288 144 288
WIRE 352 304 352 208
WIRE 352 304 304 304
WIRE 224 336 224 288
WIRE 256 336 224 336
WIRE 352 352 352 304
WIRE 352 352 304 352
WIRE 304 384 304 352
FLAG 304 0 0
FLAG 0 192 0
FLAG 144 368 0
FLAG 304 384 0
FLAG 432 144 vout
IOPIN 432 144 Out
SYMBOL nmos4 256 160 R0
SYMATTR InstName M1
SYMBOL nmos4 256 256 R0
SYMATTR InstName M2
SYMBOL pmos4 144 32 R0
SYMATTR InstName M3
SYMBOL pmos4 368 32 R0
SYMATTR InstName M4
SYMBOL voltage 0 96 R0
WINDOW 3 -426 83 Left 2
WINDOW 123 0 0 Left 0
WINDOW 39 0 0 Left 0
SYMATTR Value PULSE(0 5 0 5n 5n 40m 80m 100)
SYMATTR InstName V1
SYMBOL voltage 144 272 R0
WINDOW 3 -426 78 Left 2
WINDOW 123 0 0 Left 0
WINDOW 39 0 0 Left 0
SYMATTR Value PULSE(0 5 0 5n 5n 20m 40m 100)
SYMATTR InstName V2
SYMBOL voltage 304 -96 R0
WINDOW 123 0 0 Left 0
WINDOW 39 0 0 Left 0
SYMATTR InstName V3
SYMATTR Value 5
TEXT -424 408 Left 2 !.tran 100m
